Version 4
SHEET 1 1140 680
WIRE 400 -64 -128 -64
WIRE -128 32 -128 -64
WIRE 32 32 -128 32
WIRE 400 32 400 -64
WIRE 400 32 368 32
WIRE 496 32 432 32
WIRE 512 32 496 32
WIRE 608 32 592 32
WIRE 640 32 608 32
WIRE 752 32 640 32
WIRE 496 80 496 32
WIRE -528 112 -624 112
WIRE -416 112 -528 112
WIRE -368 112 -416 112
WIRE -320 112 -368 112
WIRE -128 112 -128 32
WIRE -128 112 -240 112
WIRE 32 112 -128 112
WIRE 432 112 432 32
WIRE 432 112 368 112
WIRE 640 128 640 32
WIRE 752 128 752 32
WIRE -624 144 -624 112
WIRE -528 192 -528 112
WIRE -416 192 -416 112
WIRE -368 192 -368 112
WIRE 32 192 -368 192
WIRE 432 192 368 192
WIRE 432 208 432 192
WIRE 640 240 640 192
WIRE 704 240 640 240
WIRE 752 240 752 192
WIRE 752 240 704 240
WIRE 32 272 -32 272
WIRE 384 272 368 272
WIRE -624 288 -624 224
WIRE -528 288 -528 256
WIRE -480 288 -528 288
WIRE -416 288 -416 256
WIRE -416 288 -480 288
WIRE -32 304 -32 272
WIRE 384 384 384 272
WIRE 384 384 -32 384
WIRE -32 432 -32 384
WIRE 352 432 -32 432
WIRE 608 432 608 32
WIRE 608 432 432 432
WIRE -32 464 -32 432
WIRE -32 576 -32 544
FLAG -624 288 0
FLAG -480 288 0
FLAG 704 240 0
FLAG 432 272 0
FLAG -32 576 0
FLAG 496 144 0
FLAG -32 304 0
SYMBOL mc34063 272 128 R0
SYMATTR InstName U1
SYMBOL res -224 96 R90
WINDOW 0 0 56 VBottom 2
WINDOW 3 32 56 VTop 2
SYMATTR InstName Rsc
SYMATTR Value 2.18
SYMBOL cap 624 128 R0
SYMATTR InstName C1
SYMATTR Value 105.2µ
SYMBOL polcap 736 128 R0
SYMATTR InstName C2
SYMATTR Value 100.4n
SYMBOL cap 416 208 R0
SYMATTR InstName CT
SYMATTR Value 590p
SYMBOL polcap -544 192 R0
SYMATTR InstName C4
SYMATTR Value 100µ
SYMBOL cap -432 192 R0
SYMATTR InstName C5
SYMATTR Value 100n
SYMBOL voltage -624 128 R0
SYMATTR InstName V1
SYMATTR Value 12
SYMBOL ind 496 48 R270
WINDOW 0 32 56 VTop 2
WINDOW 3 5 56 VBottom 2
SYMATTR InstName L2
SYMATTR Value 347.1µ
SYMBOL res 448 416 R90
WINDOW 0 0 56 VBottom 2
WINDOW 3 32 56 VTop 2
SYMATTR InstName R2
SYMATTR Value 6.68k
SYMBOL res -16 560 R180
WINDOW 0 36 76 Left 2
WINDOW 3 36 40 Left 2
SYMATTR InstName R1
SYMATTR Value 1.1891k
SYMBOL diode 512 144 R180
WINDOW 0 24 64 Left 2
WINDOW 3 24 0 Left 2
SYMATTR InstName D1
TEXT -664 560 Left 2 !.tran 0 100m 0 10u uic\n.inc mc34063.lib
